THERMO 
       100       1500      500
NH3(S)          2012    C   0O   0H   3N   1S       100      1500     500      1
 -7.924154E-001  3.580754E-002 -9.912495E-005  1.649521E-007 -1.090998E-010    2
 -1.326517E+004  1.491361E+000  1.597639E+000  1.280566E-002 -9.421255E-006    3
  4.318948E-009 -8.740192E-013 -1.348913E+004 -8.071895E+000                   4
NH2(S)          2012    C   0O   0H   2N   1S       100      1500     500      1
 -8.719823E-001  1.402988E-002  2.104321E-005 -8.722078E-008  7.239378E-011    2
 -4.516287E+003  2.739627E+000  5.475289E-001  1.426834E-002 -1.389075E-005    3
  7.303534E-009 -1.538935E-012 -4.815133E+003 -4.617882E+000                   4
NH(S)           2012    C   0O   0H   1N   1S       100      1500     500      1
 -6.101123E-001  2.539883E-003  7.146512E-005 -1.923582E-007  1.499637E-010    2
 -1.999449E+003  2.269295E+000  3.977663E-001  1.173871E-002 -1.275276E-005    3
  6.934332E-009 -1.466474E-012 -2.311670E+003 -4.004213E+000                   4
N(S)            2012    C   0O   0H   0N   1S       100      1500     500      1
 -1.040614E+000  1.174453E-002  1.113742E-005 -7.873816E-008  7.693987E-011    2
  4.565029E+003  3.595855E+000  9.889763E-001  5.748439E-003 -6.782752E-006    3
  3.705863E-009 -7.721895E-013  4.243932E+003 -6.000100E+000                   4
H(S)            2012    C   0O   0H   1N   0S       100      1500     500      1
  4.216423E-001 -1.145181E-002  9.324220E-005 -1.965767E-007  1.381835E-010    2
 -4.519652E+003 -1.204255E+000 -8.060415E-001  1.003636E-002 -1.121171E-005    3
  5.886709E-009 -1.190020E-012 -4.531990E+003  2.479711E+000                   4
N2(S)           2012    C   0O   0H   0N   2S       100      1500     500      1
 -8.093087E-001  4.674169E-002 -1.602371E-004  2.577545E-007 -1.576426E-010    2
 -1.841097E+002  1.983048E+000  3.994667E+000  2.002639E-003 -3.747463E-007    3
 -3.305233E-010  1.268506E-013 -6.081278E+002 -1.719665E+001                   4
NH3             2012    C   0O   0H   3N   1G       100      1500     500      1
  4.356973E+000 -6.150022E-003  2.951477E-005 -3.752951E-008  1.742083E-011    2
 -6.743864E+003 -8.043680E-001  2.876436E+000  4.596856E-003 -1.610815E-007    3
 -7.101367E-010  1.990512E-013 -6.578128E+003  5.467579E+000                   4
N2              2012    C   0O   0H   0N   2G       100      1500     500      1
  3.505285E+000 -1.015664E-004  6.666240E-007 -2.036394E-009  3.110496E-012    2
 -1.043393E+003  3.115485E+000  3.672560E+000 -1.540331E-003  3.743649E-006    3
 -2.500117E-009  5.635653E-013 -1.052230E+003  2.469809E+000                   4
H2              2012    C   0O   0H   2N   0G       100      1500     500      1
  3.235939E+000  5.205174E-003 -3.316362E-005  8.237532E-008 -6.933012E-011    2
 -1.032707E+003 -3.377974E+000  3.559733E+000 -1.363011E-004 -1.316006E-007    3
  5.113560E-010 -1.791692E-013 -1.056323E+003 -4.517979E+000                   4
PT(S)                   PT  1               S298       2000      1E+03         1
  2.318546E+000  1.929426E-003 -1.682130E-007  4.131402E-011 -1.669294E-015    2
 -7.634172E+002 -9.802473E+000  1.505637E+000  9.217769E-003 -1.955590E-005    3
  2.020330E-008 -7.251403E-012 -7.226661E+002 -6.689818E+000                   4
PT(B)                   PT  1               S298       2000      1E+03         1
  2.318546E+000  1.929426E-003 -1.682130E-007  4.131402E-011 -1.669294E-015    2
 -7.634172E+002 -9.802473E+000  1.505637E+000  9.217769E-003 -1.955590E-005    3
  2.020330E-008 -7.251403E-012 -7.226661E+002 -6.689818E+000                   4
END
